Geom Title=temp
Program Version=5.05
Viewing Rectangle= 381836.017449331 , 506126.017449331 , 9355280.89290183 , 9165020.89290183 

Storage Area=flowarea        ,470612.351626,9269934.9076905
Storage Area Surface Line= 5 
470440.2937976669270081.20674437                
470444.7194468359269795.75237297                
470785.4944328529269789.11389921                
470778.8559590989270074.56827062                
470440.2937976669270081.20674437                
Storage Area Type= 1 
Storage Area Area=
Storage Area Min Elev=
Storage Area Is2D=-1
Storage Area Point Generation Data=0,0,50,50
Storage Area 2D Points= 46 
470465.2937976669270056.20674437470515.2937976669270056.20674437
470565.2937976669270056.20674437470665.2937976669270056.20674437
470715.2937976669270056.20674437470765.2937976669270056.20674437
470465.2937976669270006.20674437470515.2937976669270006.20674437
470565.2937976669270006.20674437470665.2937976669270006.20674437
470715.2937976669270006.20674437470765.2937976669270006.20674437
470465.2937976669269956.20674437470515.2937976669269956.20674437
470565.2937976669269956.20674437470665.2937976669269956.20674437
470715.2937976669269956.20674437470765.2937976669269956.20674437
470465.2937976669269906.20674437470515.2937976669269906.20674437
470565.2937976669269906.20674437470665.2937976669269906.20674437
470715.2937976669269906.20674437470765.2937976669269906.20674437
470465.2937976669269856.20674437470515.2937976669269856.20674437
470565.2937976669269856.20674437470665.2937976669269856.20674437
470715.2937976669269856.20674437470765.2937976669269856.20674437
470565.2937976669269806.20674437470665.2937976669269806.20674437
470715.2937976669269806.20674437470765.2937976669269806.20674437
470645.6696345049270050.32529061470595.6696345049270050.32529061
470645.6696345049270004.07022828470595.6696345049270004.07022828
470645.6696345049269957.81516594470595.6696345049269957.81516594
470645.669634504 9269911.5601036470595.669634504 9269911.5601036
470645.6696345049269865.30504126470595.6696345049269865.30504126
470645.6696345049269819.04997893470595.6696345049269819.04997893
Storage Area 2D PointsPerimeterTime=27Sep2018 14:58:34
Storage Area Mannings=0.06
2D Cell Volume Filter Tolerance=0.003
2D Cell Minimum Area Fraction=0.01
2D Face Profile Filter Tolerance=0.003
2D Face Area Elevation Profile Filter Tolerance=0.003
2D Face Area Elevation Conveyance Ratio=0.02
2D Face Area Laminar Depth=0.06

BreakLine Name=breakline
BreakLine CellSize Min=
BreakLine CellSize Max=
BreakLine Near Repeats=1
BreakLine Polyline= 2 
470620.6696345049270073.45282178470620.6696345049269795.92244776
BC Line Name=inflow                          
BC Line Storage Area=flowarea        
BC Line Start Position= 470437.682574709 , 9270079.55239044 
BC Line Middle Position= 470440.351135997 , 9269936.59374998 
BC Line End Position= 470443.019697286 , 9269793.63510951 
BC Line Arc= 2 
470437.6825747099270079.55239044470443.0196972869269793.63510951
BC Line Text Position= 470440.351135997 , 9269936.59374998 
BC Line Name=outlet                          
BC Line Storage Area=flowarea        
BC Line Start Position= 470782.308203989 , 9270074.21526787 
BC Line Middle Position= 470786.120434401 , 9269931.2566274 
BC Line End Position= 470789.932664814 , 9269788.29798694 
BC Line Arc= 2 
470782.3082039899270074.21526787470789.9326648149269788.29798694
BC Line Text Position= 470786.120434401 , 9269931.2566274 
LCMann Time=Dec/30/1899 00:00:00
LCMann Region Time=Dec/30/1899 00:00:00
LCMann Table=0
Chan Stop Cuts=-1 



Use User Specified Reach Order=0
GIS Ratio Cuts To Invert=-1
GIS Limit At Bridges=0
Composite Channel Slope=5
